<?xml version="1.0" encoding="UTF-8"?>

<!-- generated on 2025-03-19 21:30:50 by Eclipse SUMO netedit Version 1.21.0
<neteditConfiguration xmlns:xsi="http://www.w3.org/2001/XMLSchema-instance" xsi:noNamespaceSchemaLocation="http://sumo.dlr.de/xsd/neteditConfiguration.xsd">

    <input>
        <sumo-net-file value="C:\Users\nachu\network_structure\I90_94.net.xml"/>
    </input>

    <output>
        <output-file value="C:\Users\nachu\network_structure\I90_94.net.xml"/>
        <output.street-names value="true"/>
    </output>

    <processing>
        <geometry.min-radius.fix.railways value="false"/>
        <geometry.max-grade.fix value="false"/>
        <offset.disable-normalization value="true"/>
        <lefthand value="0"/>
    </processing>

    <junctions>
        <no-turnarounds value="true"/>
        <junctions.corner-detail value="5"/>
        <junctions.limit-turn-speed value="5.50"/>
        <rectangular-lane-cut value="0"/>
    </junctions>

    <pedestrian>
        <walkingareas value="0"/>
    </pedestrian>

</neteditConfiguration>
-->

<net version="1.20" junctionCornerDetail="5" limitTurnSpeed="5.50" xmlns:xsi="http://www.w3.org/2001/XMLSchema-instance" xsi:noNamespaceSchemaLocation="http://sumo.dlr.de/xsd/net_file.xsd">

    <location netOffset="-438089.51,-4644248.98" convBoundary="93.95,-93.28,2354.48,1780.58" origBoundary="-87.746979,41.947899,-87.721357,41.965410" projParameter="+proj=utm +zone=16 +ellps=WGS84 +datum=WGS84 +units=m +no_defs"/>

    <type id="highway.motorway" priority="14" numLanes="2" speed="39.44" allow="private emergency authority army vip passenger hov taxi bus coach delivery truck trailer motorcycle evehicle custom1 custom2" oneway="1"/>
    <type id="highway.motorway_link" priority="9" numLanes="1" speed="22.22" allow="private emergency authority army vip passenger hov taxi bus coach delivery truck trailer motorcycle evehicle custom1 custom2" oneway="1"/>

    <edge id=":124471132-AddedOffRampNode_0" function="internal">
        <lane id=":124471132-AddedOffRampNode_0_0" index="0" allow="private emergency authority army vip passenger hov taxi bus coach delivery truck trailer motorcycle evehicle custom1 custom2" speed="40.00" length="8.17" shape="2022.06,166.06 2020.45,168.01 2020.03,169.91 2019.62,171.81 2018.03,173.78"/>
        <lane id=":124471132-AddedOffRampNode_0_1" index="1" allow="private emergency authority army vip passenger hov taxi bus coach delivery truck trailer motorcycle evehicle custom1 custom2" speed="40.00" length="8.17" shape="2022.06,166.06 2016.06,171.26"/>
        <lane id=":124471132-AddedOffRampNode_0_2" index="2" allow="private emergency authority army vip passenger hov taxi bus coach delivery truck trailer motorcycle evehicle custom1 custom2" speed="40.00" length="8.17" shape="2020.11,163.52 2014.08,168.74"/>
        <lane id=":124471132-AddedOffRampNode_0_3" index="3" allow="private emergency authority army vip passenger hov taxi bus coach delivery truck trailer motorcycle evehicle custom1 custom2" speed="40.00" length="8.17" shape="2018.17,160.98 2012.11,166.23"/>
        <lane id=":124471132-AddedOffRampNode_0_4" index="4" allow="private emergency authority army vip passenger hov taxi bus coach delivery truck trailer motorcycle evehicle custom1 custom2" speed="40.00" length="8.17" shape="2016.22,158.44 2010.13,163.71"/>
        <lane id=":124471132-AddedOffRampNode_0_5" index="5" allow="private emergency authority army vip passenger hov taxi bus coach delivery truck trailer motorcycle evehicle custom1 custom2" speed="40.00" length="8.17" shape="2014.27,155.90 2008.15,161.19"/>
    </edge>
    <edge id=":1385442905_0" function="internal">
        <lane id=":1385442905_0_0" index="0" allow="private emergency authority army vip passenger hov taxi bus coach delivery truck trailer motorcycle evehicle custom1 custom2" speed="40.00" length="21.75" shape="985.80,970.62 982.48,972.75 978.83,975.63 974.50,979.39 969.11,984.18"/>
        <lane id=":1385442905_0_1" index="1" allow="private emergency authority army vip passenger hov taxi bus coach delivery truck trailer motorcycle evehicle custom1 custom2" speed="40.00" length="21.75" shape="985.80,970.62 982.16,972.36 977.83,974.39 972.77,977.32 967.00,981.78"/>
    </edge>
    <edge id=":1385442905_2" function="internal">
        <lane id=":1385442905_2_0" index="0" allow="private emergency authority army vip passenger hov taxi bus coach delivery truck trailer motorcycle evehicle custom1 custom2" speed="40.00" length="10.80" shape="973.31,972.98 964.88,979.38"/>
        <lane id=":1385442905_2_1" index="1" allow="private emergency authority army vip passenger hov taxi bus coach delivery truck trailer motorcycle evehicle custom1 custom2" speed="40.00" length="10.80" shape="971.28,970.51 962.76,976.98"/>
        <lane id=":1385442905_2_2" index="2" allow="private emergency authority army vip passenger hov taxi bus coach delivery truck trailer motorcycle evehicle custom1 custom2" speed="40.00" length="10.80" shape="969.24,968.04 960.64,974.58"/>
        <lane id=":1385442905_2_3" index="3" allow="private emergency authority army vip passenger hov taxi bus coach delivery truck trailer motorcycle evehicle custom1 custom2" speed="40.00" length="10.80" shape="967.21,965.57 958.52,972.18"/>
        <lane id=":1385442905_2_4" index="4" allow="private emergency authority army vip passenger hov taxi bus coach delivery truck trailer motorcycle evehicle custom1 custom2" speed="40.00" length="10.80" shape="965.17,963.10 956.41,969.78"/>
    </edge>
    <edge id=":26704226_0" function="internal">
        <lane id=":26704226_0_0" index="0" allow="private emergency authority army vip passenger hov taxi bus coach delivery truck trailer motorcycle evehicle custom1 custom2" speed="40.00" length="2.58" shape="1927.74,244.66 1925.75,246.30"/>
    </edge>
    <edge id=":26704226_1" function="internal">
        <lane id=":26704226_1_0" index="0" allow="private emergency authority army vip passenger hov taxi bus coach delivery truck trailer motorcycle evehicle custom1 custom2" speed="40.00" length="3.03" shape="1925.77,242.14 1923.67,243.89"/>
        <lane id=":26704226_1_1" index="1" allow="private emergency authority army vip passenger hov taxi bus coach delivery truck trailer motorcycle evehicle custom1 custom2" speed="40.00" length="3.03" shape="1923.79,239.62 1921.58,241.47"/>
        <lane id=":26704226_1_2" index="2" allow="private emergency authority army vip passenger hov taxi bus coach delivery truck trailer motorcycle evehicle custom1 custom2" speed="40.00" length="3.03" shape="1921.81,237.10 1919.49,239.04"/>
        <lane id=":26704226_1_3" index="3" allow="private emergency authority army vip passenger hov taxi bus coach delivery truck trailer motorcycle evehicle custom1 custom2" speed="40.00" length="3.03" shape="1919.84,234.59 1917.39,236.61"/>
        <lane id=":26704226_1_4" index="4" allow="private emergency authority army vip passenger hov taxi bus coach delivery truck trailer motorcycle evehicle custom1 custom2" speed="40.00" length="3.03" shape="1917.86,232.07 1915.30,234.19"/>
    </edge>
    <edge id=":26704233_0" function="internal">
        <lane id=":26704233_0_0" index="0" allow="private emergency authority army vip passenger hov taxi bus coach delivery truck trailer motorcycle evehicle custom1 custom2" speed="40.00" length="2.64" shape="888.25,1055.56 887.71,1056.12 887.42,1056.57 887.13,1057.03 886.61,1057.61"/>
    </edge>
    <edge id=":26704233_1" function="internal">
        <lane id=":26704233_1_0" index="0" allow="private emergency authority army vip passenger hov taxi bus coach delivery truck trailer motorcycle evehicle custom1 custom2" speed="40.00" length="3.06" shape="886.13,1053.16 884.20,1055.10"/>
        <lane id=":26704233_1_1" index="1" allow="private emergency authority army vip passenger hov taxi bus coach delivery truck trailer motorcycle evehicle custom1 custom2" speed="40.00" length="3.06" shape="884.01,1050.76 881.98,1052.78"/>
        <lane id=":26704233_1_2" index="2" allow="private emergency authority army vip passenger hov taxi bus coach delivery truck trailer motorcycle evehicle custom1 custom2" speed="40.00" length="3.06" shape="881.90,1048.36 879.76,1050.46"/>
        <lane id=":26704233_1_3" index="3" allow="private emergency authority army vip passenger hov taxi bus coach delivery truck trailer motorcycle evehicle custom1 custom2" speed="40.00" length="3.06" shape="879.78,1045.97 877.54,1048.15"/>
        <lane id=":26704233_1_4" index="4" allow="private emergency authority army vip passenger hov taxi bus coach delivery truck trailer motorcycle evehicle custom1 custom2" speed="40.00" length="3.06" shape="877.66,1043.57 875.32,1045.83"/>
        <lane id=":26704233_1_5" index="5" allow="private emergency authority army vip passenger hov taxi bus coach delivery truck trailer motorcycle evehicle custom1 custom2" speed="40.00" length="3.06" shape="875.54,1041.17 873.11,1043.51"/>
    </edge>
    <edge id=":26704235_0" function="internal">
        <lane id=":26704235_0_0" index="0" allow="private emergency authority army vip passenger hov taxi bus coach delivery truck trailer motorcycle evehicle custom1 custom2" speed="40.00" length="2.72" shape="695.82,1202.99 695.19,1203.49 694.82,1203.90 694.44,1204.31 693.84,1204.84"/>
    </edge>
    <edge id=":26704235_1" function="internal">
        <lane id=":26704235_1_0" index="0" allow="private emergency authority army vip passenger hov taxi bus coach delivery truck trailer motorcycle evehicle custom1 custom2" speed="40.00" length="3.04" shape="693.95,1200.39 691.54,1201.83"/>
        <lane id=":26704235_1_1" index="1" allow="private emergency authority army vip passenger hov taxi bus coach delivery truck trailer motorcycle evehicle custom1 custom2" speed="40.00" length="3.04" shape="692.08,1197.79 689.59,1199.28"/>
        <lane id=":26704235_1_2" index="2" allow="private emergency authority army vip passenger hov taxi bus coach delivery truck trailer motorcycle evehicle custom1 custom2" speed="40.00" length="3.04" shape="690.21,1195.19 687.65,1196.74"/>
        <lane id=":26704235_1_3" index="3" allow="private emergency authority army vip passenger hov taxi bus coach delivery truck trailer motorcycle evehicle custom1 custom2" speed="40.00" length="3.04" shape="688.35,1192.59 685.71,1194.19"/>
        <lane id=":26704235_1_4" index="4" allow="private emergency authority army vip passenger hov taxi bus coach delivery truck trailer motorcycle evehicle custom1 custom2" speed="40.00" length="3.04" shape="686.48,1189.99 683.76,1191.65"/>
        <lane id=":26704235_1_5" index="5" allow="private emergency authority army vip passenger hov taxi bus coach delivery truck trailer motorcycle evehicle custom1 custom2" speed="40.00" length="3.04" shape="684.61,1187.39 681.82,1189.10"/>
    </edge>
    <edge id=":26704238_0" function="internal">
        <lane id=":26704238_0_0" index="0" allow="private emergency authority army vip passenger hov taxi bus coach delivery truck trailer motorcycle evehicle custom1 custom2" speed="39.72" length="8.05" shape="392.94,1458.11 391.68,1460.20 391.53,1462.05 391.39,1463.92 390.19,1466.05"/>
        <lane id=":26704238_0_1" index="1" allow="private emergency authority army vip passenger hov taxi bus coach delivery truck trailer motorcycle evehicle custom1 custom2" speed="39.72" length="8.05" shape="392.94,1458.11 387.79,1463.93"/>
        <lane id=":26704238_0_2" index="2" allow="private emergency authority army vip passenger hov taxi bus coach delivery truck trailer motorcycle evehicle custom1 custom2" speed="39.72" length="8.05" shape="390.61,1455.91 385.40,1461.80"/>
        <lane id=":26704238_0_3" index="3" allow="private emergency authority army vip passenger hov taxi bus coach delivery truck trailer motorcycle evehicle custom1 custom2" speed="39.72" length="8.05" shape="388.28,1453.72 383.01,1459.68"/>
    </edge>
    <edge id=":26704238_4" function="internal">
        <lane id=":26704238_4_0" index="0" allow="private emergency authority army vip passenger hov taxi bus coach delivery truck trailer motorcycle evehicle custom1 custom2" speed="40.00" length="8.14" shape="385.95,1451.52 380.66,1457.59"/>
        <lane id=":26704238_4_1" index="1" allow="private emergency authority army vip passenger hov taxi bus coach delivery truck trailer motorcycle evehicle custom1 custom2" speed="40.00" length="8.14" shape="383.62,1449.33 378.27,1455.46"/>
        <lane id=":26704238_4_2" index="2" allow="private emergency authority army vip passenger hov taxi bus coach delivery truck trailer motorcycle evehicle custom1 custom2" speed="40.00" length="8.14" shape="381.29,1447.13 375.88,1453.34"/>
    </edge>
    <edge id=":305912896_0" function="internal">
        <lane id=":305912896_0_0" index="0" allow="private emergency authority army vip passenger hov taxi bus coach delivery truck trailer motorcycle evehicle custom1 custom2" speed="39.72" length="3.13" shape="325.47,1535.45 323.48,1537.87"/>
    </edge>
    <edge id=":305912896_1" function="internal">
        <lane id=":305912896_1_0" index="0" allow="private emergency authority army vip passenger hov taxi bus coach delivery truck trailer motorcycle evehicle custom1 custom2" speed="39.44" length="2.71" shape="323.09,1533.31 321.15,1535.36"/>
        <lane id=":305912896_1_1" index="1" allow="private emergency authority army vip passenger hov taxi bus coach delivery truck trailer motorcycle evehicle custom1 custom2" speed="39.44" length="2.71" shape="320.71,1531.17 318.85,1533.13"/>
        <lane id=":305912896_1_2" index="2" allow="private emergency authority army vip passenger hov taxi bus coach delivery truck trailer motorcycle evehicle custom1 custom2" speed="39.44" length="2.71" shape="318.33,1529.03 316.55,1530.91"/>
    </edge>
    <edge id=":310319692_0" function="internal">
        <lane id=":310319692_0_0" index="0" allow="private emergency authority army vip passenger hov taxi bus coach delivery truck trailer motorcycle evehicle custom1 custom2" speed="40.00" length="8.11" shape="826.32,1102.74 824.64,1104.75 824.13,1106.68 823.60,1108.58 821.87,1110.52"/>
        <lane id=":310319692_0_1" index="1" allow="private emergency authority army vip passenger hov taxi bus coach delivery truck trailer motorcycle evehicle custom1 custom2" speed="40.00" length="8.11" shape="826.32,1102.74 819.99,1107.93"/>
        <lane id=":310319692_0_2" index="2" allow="private emergency authority army vip passenger hov taxi bus coach delivery truck trailer motorcycle evehicle custom1 custom2" speed="40.00" length="8.11" shape="824.36,1100.21 818.11,1105.35"/>
        <lane id=":310319692_0_3" index="3" allow="private emergency authority army vip passenger hov taxi bus coach delivery truck trailer motorcycle evehicle custom1 custom2" speed="40.00" length="8.11" shape="822.40,1097.69 816.23,1102.76"/>
        <lane id=":310319692_0_4" index="4" allow="private emergency authority army vip passenger hov taxi bus coach delivery truck trailer motorcycle evehicle custom1 custom2" speed="40.00" length="8.11" shape="820.44,1095.16 814.35,1100.17"/>
        <lane id=":310319692_0_5" index="5" allow="private emergency authority army vip passenger hov taxi bus coach delivery truck trailer motorcycle evehicle custom1 custom2" speed="40.00" length="8.11" shape="818.48,1092.63 812.47,1097.58"/>
        <lane id=":310319692_0_6" index="6" allow="private emergency authority army vip passenger hov taxi bus coach delivery truck trailer motorcycle evehicle custom1 custom2" speed="40.00" length="8.11" shape="816.52,1090.10 810.59,1094.99"/>
    </edge>

    <edge id="11759237" from="26704238" to="305912896" name="Edens Expressway" priority="14" type="highway.motorway" spreadType="center" shape="389.83,1459.23 378.32,1472.18 366.64,1484.32 358.08,1493.56 350.88,1500.78 341.23,1510.76 320.69,1533.59">
        <lane id="11759237_0" index="0" allow="private emergency authority army vip passenger hov taxi bus coach delivery truck trailer motorcycle evehicle custom1 custom2" speed="39.44" length="94.88" shape="390.19,1466.05 381.84,1475.44 370.13,1487.62 361.54,1496.89 354.30,1504.14 344.74,1514.03 325.47,1535.45">
            <param key="origId" value="11759237"/>
        </lane>
        <lane id="11759237_1" index="1" allow="private emergency authority army vip passenger hov taxi bus coach delivery truck trailer motorcycle evehicle custom1 custom2" speed="39.44" length="94.88" shape="387.79,1463.93 379.49,1473.27 367.80,1485.42 359.23,1494.67 352.02,1501.90 342.40,1511.85 323.09,1533.31">
            <param key="origId" value="11759237"/>
        </lane>
        <lane id="11759237_2" index="2" allow="private emergency authority army vip passenger hov taxi bus coach delivery truck trailer motorcycle evehicle custom1 custom2" speed="39.44" length="94.88" shape="385.40,1461.80 377.15,1471.09 365.48,1483.22 356.93,1492.45 349.74,1499.66 340.06,1509.67 320.71,1531.17">
            <param key="origId" value="11759237"/>
        </lane>
        <lane id="11759237_3" index="3" allow="private emergency authority army vip passenger hov taxi bus coach delivery truck trailer motorcycle evehicle custom1 custom2" speed="39.44" length="94.88" shape="383.01,1459.68 374.80,1468.92 363.15,1481.02 354.62,1490.23 347.46,1497.42 337.72,1507.49 318.33,1529.03">
            <param key="origId" value="11759237"/>
        </lane>
        <param key="ref" value="I 94"/>
    </edge>
    <edge id="124471129" from="310319692" to="26704235" name="Kennedy Expressway" priority="14" type="highway.motorway" spreadType="center" shape="819.20,1100.60 755.18,1147.12 703.65,1185.54 688.81,1196.20">
        <lane id="124471129_0" index="0" allow="private emergency authority army vip passenger hov taxi bus coach delivery truck trailer motorcycle evehicle custom1 custom2" speed="40.00" length="156.29" acceleration="1" shape="821.87,1110.52 760.87,1154.85 709.32,1193.29 695.82,1202.99">
            <param key="origId" value="124471129 28256534 826608655"/>
        </lane>
        <lane id="124471129_1" index="1" allow="private emergency authority army vip passenger hov taxi bus coach delivery truck trailer motorcycle evehicle custom1 custom2" speed="40.00" length="156.29" acceleration="1" shape="819.99,1107.93 758.97,1152.27 707.43,1190.70 693.95,1200.39">
            <param key="origId" value="124471129 28256534 826608655"/>
        </lane>
        <lane id="124471129_2" index="2" allow="private emergency authority army vip passenger hov taxi bus coach delivery truck trailer motorcycle evehicle custom1 custom2" speed="40.00" length="156.29" acceleration="1" shape="818.11,1105.35 757.08,1149.70 705.54,1188.12 692.08,1197.79">
            <param key="origId" value="124471129 28256534 826608655"/>
        </lane>
        <lane id="124471129_3" index="3" allow="private emergency authority army vip passenger hov taxi bus coach delivery truck trailer motorcycle evehicle custom1 custom2" speed="40.00" length="156.29" acceleration="1" shape="816.23,1102.76 755.18,1147.12 703.65,1185.54 690.21,1195.19">
            <param key="origId" value="124471129 28256534 826608655"/>
        </lane>
        <lane id="124471129_4" index="4" allow="private emergency authority army vip passenger hov taxi bus coach delivery truck trailer motorcycle evehicle custom1 custom2" speed="40.00" length="156.29" acceleration="1" shape="814.35,1100.17 753.28,1144.54 701.76,1182.96 688.35,1192.59">
            <param key="origId" value="124471129 28256534 826608655"/>
        </lane>
        <lane id="124471129_5" index="5" allow="private emergency authority army vip passenger hov taxi bus coach delivery truck trailer motorcycle evehicle custom1 custom2" speed="40.00" length="156.29" acceleration="1" shape="812.47,1097.58 751.39,1141.97 699.87,1180.38 686.48,1189.99">
            <param key="origId" value="124471129 28256534 826608655"/>
        </lane>
        <lane id="124471129_6" index="6" allow="private emergency authority army vip passenger hov taxi bus coach delivery truck trailer motorcycle evehicle custom1 custom2" speed="40.00" length="156.29" shape="810.59,1094.99 749.49,1139.39 697.98,1177.79 684.61,1187.39">
            <param key="origId" value="124471129 28256534 826608655"/>
        </lane>
        <param key="ref" value="I 90;I 94"/>
    </edge>
    <edge id="124471132" from="26704225" to="124471132-AddedOffRampNode" name="Kennedy Expressway" priority="14" type="highway.motorway" spreadType="center" shape="2354.48,-93.28 2050.04,136.57 2029.18,152.54 2011.49,166.10">
        <lane id="124471132_0" index="0" allow="private emergency authority army vip passenger hov taxi bus coach delivery truck trailer motorcycle evehicle custom1 custom2" speed="40.00" length="421.61" shape="2358.34,-88.17 2053.91,141.66 2033.07,157.62 2022.06,166.06">
            <param key="origId" value="124471132"/>
        </lane>
        <lane id="124471132_1" index="1" allow="private emergency authority army vip passenger hov taxi bus coach delivery truck trailer motorcycle evehicle custom1 custom2" speed="40.00" length="421.61" shape="2356.41,-90.73 2051.98,139.12 2031.13,155.08 2020.11,163.52">
            <param key="origId" value="124471132"/>
        </lane>
        <lane id="124471132_2" index="2" allow="private emergency authority army vip passenger hov taxi bus coach delivery truck trailer motorcycle evehicle custom1 custom2" speed="40.00" length="421.61" shape="2354.48,-93.28 2050.04,136.57 2029.18,152.54 2018.17,160.98">
            <param key="origId" value="124471132"/>
        </lane>
        <lane id="124471132_3" index="3" allow="private emergency authority army vip passenger hov taxi bus coach delivery truck trailer motorcycle evehicle custom1 custom2" speed="40.00" length="421.61" shape="2352.55,-95.83 2048.10,134.02 2027.23,150.00 2016.22,158.44">
            <param key="origId" value="124471132"/>
        </lane>
        <lane id="124471132_4" index="4" allow="private emergency authority army vip passenger hov taxi bus coach delivery truck trailer motorcycle evehicle custom1 custom2" speed="40.00" length="421.61" shape="2350.62,-98.39 2046.17,131.48 2025.29,147.46 2014.27,155.90">
            <param key="origId" value="124471132"/>
        </lane>
        <param key="ref" value="I 90;I 94"/>
    </edge>
    <edge id="124471132-AddedOffRampEdge" from="124471132-AddedOffRampNode" to="26704226" name="Kennedy Expressway" priority="14" type="highway.motorway" spreadType="center" shape="2019.70,162.30 1921.80,239.15">
        <lane id="124471132-AddedOffRampEdge_0" index="0" allow="private emergency authority army vip passenger hov taxi bus coach delivery truck trailer motorcycle evehicle custom1 custom2" speed="40.00" length="114.79" shape="2018.03,173.78 1927.74,244.66">
            <param key="origId" value="124471132"/>
        </lane>
        <lane id="124471132-AddedOffRampEdge_1" index="1" allow="private emergency authority army vip passenger hov taxi bus coach delivery truck trailer motorcycle evehicle custom1 custom2" speed="40.00" length="114.79" shape="2016.06,171.26 1925.77,242.14">
            <param key="origId" value="124471132"/>
        </lane>
        <lane id="124471132-AddedOffRampEdge_2" index="2" allow="private emergency authority army vip passenger hov taxi bus coach delivery truck trailer motorcycle evehicle custom1 custom2" speed="40.00" length="114.79" shape="2014.08,168.74 1923.79,239.62">
            <param key="origId" value="124471132"/>
        </lane>
        <lane id="124471132-AddedOffRampEdge_3" index="3" allow="private emergency authority army vip passenger hov taxi bus coach delivery truck trailer motorcycle evehicle custom1 custom2" speed="40.00" length="114.79" shape="2012.11,166.23 1921.81,237.10">
            <param key="origId" value="124471132"/>
        </lane>
        <lane id="124471132-AddedOffRampEdge_4" index="4" allow="private emergency authority army vip passenger hov taxi bus coach delivery truck trailer motorcycle evehicle custom1 custom2" speed="40.00" length="114.79" shape="2010.13,163.71 1919.84,234.59">
            <param key="origId" value="124471132"/>
        </lane>
        <lane id="124471132-AddedOffRampEdge_5" index="5" allow="private emergency authority army vip passenger hov taxi bus coach delivery truck trailer motorcycle evehicle custom1 custom2" speed="40.00" length="114.79" shape="2008.15,161.19 1917.86,232.07">
            <param key="origId" value="124471132"/>
        </lane>
        <param key="ref" value="I 90;I 94"/>
    </edge>
    <edge id="24306156" from="26704226" to="4334422159" priority="9" type="highway.motorway_link" spreadType="center" shape="1926.72,245.46 1873.57,291.33 1838.70,319.81 1770.89,377.79 1729.94,413.58 1658.65,474.11 1655.34,476.57">
        <lane id="24306156_0" index="0" allow="private emergency authority army vip passenger hov taxi bus coach delivery truck trailer motorcycle evehicle custom1 custom2" speed="40.00" length="355.19" shape="1925.75,246.30 1873.57,291.33 1838.70,319.81 1770.89,377.79 1729.94,413.58 1658.65,474.11 1655.34,476.57">
            <param key="origId" value="24306156"/>
        </lane>
    </edge>
    <edge id="24521700#0" from="26704233" to="9192540664" priority="9" type="highway.motorway_link" spreadType="center" shape="886.90,1057.33 870.31,1073.22 857.24,1086.51 826.97,1113.30 785.76,1144.90 733.02,1184.91">
        <lane id="24521700#0_0" index="0" allow="private emergency authority army vip passenger hov taxi bus coach delivery truck trailer motorcycle evehicle custom1 custom2" speed="40.00" length="199.76" shape="886.61,1057.61 870.31,1073.22 857.24,1086.51 826.97,1113.30 785.76,1144.90 733.02,1184.91">
            <param key="origId" value="24521700"/>
        </lane>
    </edge>
    <edge id="24521704#3.24" from="J0" to="1385442905" priority="9" type="highway.motorway_link" spreadType="center" shape="1072.94,917.67 1060.62,924.42 1039.20,938.52 1015.56,953.29 1002.56,961.45 985.80,970.62">
        <lane id="24521704#3.24_0" index="0" allow="private emergency authority army vip passenger hov taxi bus coach delivery truck trailer motorcycle evehicle custom1 custom2" speed="40.00" length="102.02" shape="1072.94,917.67 1060.62,924.42 1039.20,938.52 1015.56,953.29 1002.56,961.45 985.80,970.62">
            <param key="origId" value="24521704"/>
        </lane>
    </edge>
    <edge id="27862401" from="305912896" to="4332542852" priority="9" type="highway.motorway_link" spreadType="center" shape="324.98,1535.88 319.42,1543.24 315.43,1548.18 304.96,1559.53 296.60,1568.15 287.36,1578.54 243.49,1631.31 209.15,1673.13 198.11,1687.02 193.26,1694.30">
        <lane id="27862401_0" index="0" allow="private emergency authority army vip passenger hov taxi bus coach delivery truck trailer motorcycle evehicle custom1 custom2" speed="40.00" length="203.66" shape="323.48,1537.87 319.42,1543.24 315.43,1548.18 304.96,1559.53 296.60,1568.15 287.36,1578.54 243.49,1631.31 209.15,1673.13 198.11,1687.02 193.26,1694.30">
            <param key="origId" value="27862401"/>
        </lane>
    </edge>
    <edge id="27878350" from="26704235" to="10182033644" priority="9" type="highway.motorway_link" spreadType="center" shape="695.21,1203.79 625.61,1256.94 590.43,1287.27 548.94,1321.90 520.72,1348.06 502.81,1367.46">
        <lane id="27878350_0" index="0" allow="private emergency authority army vip passenger hov taxi bus coach delivery truck trailer motorcycle evehicle custom1 custom2" speed="40.00" length="251.22" shape="693.84,1204.84 625.61,1256.94 590.43,1287.27 548.94,1321.90 520.72,1348.06 502.81,1367.46">
            <param key="origId" value="27878350"/>
        </lane>
    </edge>
    <edge id="28256533" from="26704235" to="26704238" name="Kennedy Expressway" priority="14" type="highway.motorway" spreadType="center" shape="688.09,1194.45 680.90,1199.62 667.64,1209.03 656.05,1217.24 643.27,1226.49 632.95,1234.80 615.17,1248.32 587.20,1268.85 577.99,1276.16 559.83,1290.58 538.09,1307.80 519.92,1323.15 502.40,1338.30 482.68,1355.90 464.13,1373.00 444.40,1392.43 425.56,1411.65 399.54,1439.35 389.82,1449.75 383.76,1456.18">
        <lane id="28256533_0" index="0" allow="private emergency authority army vip passenger hov taxi bus coach delivery truck trailer motorcycle evehicle custom1 custom2" speed="40.00" length="395.72" shape="691.54,1201.83 685.55,1206.13 672.27,1215.56 660.71,1223.74 648.13,1232.85 637.88,1241.10 619.96,1254.73 592.06,1275.21 582.96,1282.43 564.80,1296.85 543.16,1313.99 525.12,1329.23 507.68,1344.31 488.05,1361.83 469.65,1378.79 450.06,1398.08 431.33,1417.19 405.37,1444.82 395.66,1455.22 392.94,1458.11">
            <param key="origId" value="28256533"/>
        </lane>
        <lane id="28256533_1" index="1" allow="private emergency authority army vip passenger hov taxi bus coach delivery truck trailer motorcycle evehicle custom1 custom2" speed="40.00" length="395.72" shape="689.59,1199.28 683.69,1203.53 670.42,1212.95 658.84,1221.14 646.18,1230.31 635.91,1238.58 618.04,1252.17 590.11,1272.67 580.97,1279.92 562.81,1294.34 541.13,1311.52 523.04,1326.80 505.57,1341.91 485.90,1359.46 467.44,1376.48 447.80,1395.82 429.02,1414.97 403.04,1442.63 393.32,1453.03 390.61,1455.91">
            <param key="origId" value="28256533"/>
        </lane>