<?xml version="1.0" encoding="UTF-8"?>

<!-- generated on 2025-03-20 22:33:06 by Eclipse SUMO netedit Version 1.21.0
<neteditConfiguration xmlns:xsi="http://www.w3.org/2001/XMLSchema-instance" xsi:noNamespaceSchemaLocation="http://sumo.dlr.de/xsd/neteditConfiguration.xsd">

    <input>
        <sumo-net-file value="C:\Users\nachu\network_structure\I294.net.xml"/>
    </input>

    <output>
        <output-file value="C:\Users\nachu\network_structure\I294.net.xml"/>
        <output.street-names value="true"/>
    </output>

    <processing>
        <geometry.min-radius.fix.railways value="false"/>
        <geometry.max-grade.fix value="false"/>
        <offset.disable-normalization value="true"/>
        <lefthand value="0"/>
    </processing>

    <junctions>
        <no-turnarounds value="true"/>
        <junctions.corner-detail value="5"/>
        <junctions.limit-turn-speed value="5.50"/>
        <rectangular-lane-cut value="0"/>
    </junctions>

    <pedestrian>
        <walkingareas value="0"/>
    </pedestrian>

</neteditConfiguration>
-->

<net version="1.20" junctionCornerDetail="5" limitTurnSpeed="5.50" xmlns:xsi="http://www.w3.org/2001/XMLSchema-instance" xsi:noNamespaceSchemaLocation="http://sumo.dlr.de/xsd/net_file.xsd">

    <location netOffset="-423384.54,-4629247.99" convBoundary="230.77,262.98,702.86,3635.52" origBoundary="-87.922510,41.811494,-87.909602,41.866647" projParameter="+proj=utm +zone=16 +ellps=WGS84 +datum=WGS84 +units=m +no_defs"/>

    <type id="highway.motorway" priority="14" numLanes="2" speed="39.44" allow="private emergency authority army vip passenger hov taxi bus coach delivery truck trailer motorcycle evehicle custom1 custom2" oneway="1"/>
    <type id="highway.motorway_link" priority="9" numLanes="1" speed="22.22" allow="private emergency authority army vip passenger hov taxi bus coach delivery truck trailer motorcycle evehicle custom1 custom2" oneway="1"/>

    <edge id=":385632601_0" function="internal">
        <lane id=":385632601_0_0" index="0" allow="private emergency authority army vip passenger hov taxi bus coach delivery truck trailer motorcycle evehicle custom1 custom2" speed="40.00" length="3.26" shape="652.45,843.74 652.77,842.83 652.96,842.19 653.11,841.54 653.28,840.59"/>
    </edge>
    <edge id=":385632601_1" function="internal">
        <lane id=":385632601_1_0" index="0" allow="private emergency authority army vip passenger hov taxi bus coach delivery truck trailer motorcycle evehicle custom1 custom2" speed="40.00" length="4.24" shape="655.68,845.02 656.43,841.14"/>
        <lane id=":385632601_1_1" index="1" allow="private emergency authority army vip passenger hov taxi bus coach delivery truck trailer motorcycle evehicle custom1 custom2" speed="40.00" length="4.24" shape="658.80,845.76 659.58,841.69"/>
        <lane id=":385632601_1_2" index="2" allow="private emergency authority army vip passenger hov taxi bus coach delivery truck trailer motorcycle evehicle custom1 custom2" speed="40.00" length="4.24" shape="661.91,846.49 662.73,842.24"/>
        <lane id=":385632601_1_3" index="3" allow="private emergency authority army vip passenger hov taxi bus coach delivery truck trailer motorcycle evehicle custom1 custom2" speed="40.00" length="4.24" shape="665.03,847.22 665.89,842.78"/>
    </edge>
    <edge id=":385632616_0" function="internal">
        <lane id=":385632616_0_0" index="0" allow="private emergency authority army vip passenger hov taxi bus coach delivery truck trailer motorcycle evehicle custom1 custom2" speed="40.00" length="16.98" shape="240.05,3297.22 239.26,3292.00 238.71,3288.43 238.37,3284.84 238.20,3279.58"/>
        <lane id=":385632616_0_1" index="1" allow="private emergency authority army vip passenger hov taxi bus coach delivery truck trailer motorcycle evehicle custom1 custom2" speed="40.00" length="16.98" shape="243.22,3296.78 242.45,3291.68 241.91,3288.18 241.57,3284.67 241.39,3279.53"/>
        <lane id=":385632616_0_2" index="2" allow="private emergency authority army vip passenger hov taxi bus coach delivery truck trailer motorcycle evehicle custom1 custom2" speed="40.00" length="16.98" shape="246.39,3296.34 245.63,3291.35 245.10,3287.94 244.77,3284.51 244.59,3279.48"/>
        <lane id=":385632616_0_3" index="3" allow="private emergency authority army vip passenger hov taxi bus coach delivery truck trailer motorcycle evehicle custom1 custom2" speed="40.00" length="16.98" shape="249.55,3295.90 248.82,3291.03 248.30,3287.69 247.96,3284.34 247.79,3279.43"/>
        <lane id=":385632616_0_4" index="4" allow="private emergency authority army vip passenger hov taxi bus coach delivery truck trailer motorcycle evehicle custom1 custom2" speed="40.00" length="16.98" shape="252.72,3295.46 252.00,3290.70 251.49,3287.45 251.16,3284.17 250.99,3279.38"/>
    </edge>
    <edge id=":385632616_5" function="internal">
        <lane id=":385632616_5_0" index="0" allow="private emergency authority army vip passenger hov taxi bus coach delivery truck trailer motorcycle evehicle custom1 custom2" speed="40.00" length="17.89" shape="236.28,3297.47 235.00,3279.63"/>
    </edge>
    <edge id=":385641426_0" function="internal">
        <lane id=":385641426_0_0" index="0" allow="private emergency authority army vip passenger hov taxi bus coach delivery truck trailer motorcycle evehicle custom1 custom2" speed="40.00" length="2.88" shape="442.07,1375.78 443.23,1373.15"/>
    </edge>
    <edge id=":385641426_1" function="internal">
        <lane id=":385641426_1_0" index="0" allow="private emergency authority army vip passenger hov taxi bus coach delivery truck trailer motorcycle evehicle custom1 custom2" speed="40.00" length="3.02" shape="444.98,1377.11 446.21,1374.43"/>
        <lane id=":385641426_1_1" index="1" allow="private emergency authority army vip passenger hov taxi bus coach delivery truck trailer motorcycle evehicle custom1 custom2" speed="40.00" length="3.02" shape="447.90,1378.43 449.14,1375.71"/>
        <lane id=":385641426_1_2" index="2" allow="private emergency authority army vip passenger hov taxi bus coach delivery truck trailer motorcycle evehicle custom1 custom2" speed="40.00" length="3.02" shape="450.81,1379.75 452.08,1376.98"/>
        <lane id=":385641426_1_3" index="3" allow="private emergency authority army vip passenger hov taxi bus coach delivery truck trailer motorcycle evehicle custom1 custom2" speed="40.00" length="3.02" shape="453.72,1381.07 455.02,1378.25"/>
    </edge>
    <edge id=":385641811_0" function="internal">
        <lane id=":385641811_0_0" index="0" allow="private emergency authority army vip passenger hov taxi bus coach delivery truck trailer motorcycle evehicle custom1 custom2" speed="40.00" length="2.66" shape="671.66,719.66 671.76,717.01"/>
    </edge>
    <edge id=":385641811_1" function="internal">
        <lane id=":385641811_1_0" index="0" allow="private emergency authority army vip passenger hov taxi bus coach delivery truck trailer motorcycle evehicle custom1 custom2" speed="40.00" length="3.01" shape="674.84,720.05 675.01,717.26"/>
        <lane id=":385641811_1_1" index="1" allow="private emergency authority army vip passenger hov taxi bus coach delivery truck trailer motorcycle evehicle custom1 custom2" speed="40.00" length="3.01" shape="678.01,720.43 678.20,717.50"/>
        <lane id=":385641811_1_2" index="2" allow="private emergency authority army vip passenger hov taxi bus coach delivery truck trailer motorcycle evehicle custom1 custom2" speed="40.00" length="3.01" shape="681.19,720.82 681.40,717.75"/>
        <lane id=":385641811_1_3" index="3" allow="private emergency authority army vip passenger hov taxi bus coach delivery truck trailer motorcycle evehicle custom1 custom2" speed="40.00" length="3.01" shape="684.37,721.20 684.59,717.99"/>
    </edge>
    <edge id=":385641870_0" function="internal">
        <lane id=":385641870_0_0" index="0" allow="private emergency authority army vip passenger hov taxi bus coach delivery truck trailer motorcycle evehicle custom1 custom2" speed="40.00" length="2.86" shape="691.87,379.48 692.05,376.63"/>
    </edge>
    <edge id=":385641870_1" function="internal">
        <lane id=":385641870_1_0" index="0" allow="private emergency authority army vip passenger hov taxi bus coach delivery truck trailer motorcycle evehicle custom1 custom2" speed="40.00" length="2.99" shape="695.13,379.63 695.24,376.72"/>
        <lane id=":385641870_1_1" index="1" allow="private emergency authority army vip passenger hov taxi bus coach delivery truck trailer motorcycle evehicle custom1 custom2" speed="40.00" length="2.99" shape="698.33,379.78 698.44,376.82"/>
        <lane id=":385641870_1_2" index="2" allow="private emergency authority army vip passenger hov taxi bus coach delivery truck trailer motorcycle evehicle custom1 custom2" speed="40.00" length="2.99" shape="701.53,379.93 701.64,376.91"/>
        <lane id=":385641870_1_3" index="3" allow="private emergency authority army vip passenger hov taxi bus coach delivery truck trailer motorcycle evehicle custom1 custom2" speed="40.00" length="2.99" shape="704.72,380.08 704.84,377.01"/>
    </edge>
    <edge id=":61857420-AddedOnRampNode_0" function="internal">
        <lane id=":61857420-AddedOnRampNode_0_0" index="0" allow="private emergency authority army vip passenger hov taxi bus coach delivery truck trailer motorcycle evehicle custom1 custom2" speed="40.00" length="7.95" shape="238.24,3183.62 238.48,3175.52"/>
        <lane id=":61857420-AddedOnRampNode_0_1" index="1" allow="private emergency authority army vip passenger hov taxi bus coach delivery truck trailer motorcycle evehicle custom1 custom2" speed="40.00" length="7.95" shape="241.44,3183.68 241.68,3175.65"/>
        <lane id=":61857420-AddedOnRampNode_0_2" index="2" allow="private emergency authority army vip passenger hov taxi bus coach delivery truck trailer motorcycle evehicle custom1 custom2" speed="40.00" length="7.95" shape="244.64,3183.74 244.87,3175.78"/>
        <lane id=":61857420-AddedOnRampNode_0_3" index="3" allow="private emergency authority army vip passenger hov taxi bus coach delivery truck trailer motorcycle evehicle custom1 custom2" speed="40.00" length="7.95" shape="247.84,3183.79 248.07,3175.92"/>
        <lane id=":61857420-AddedOnRampNode_0_4" index="4" allow="private emergency authority army vip passenger hov taxi bus coach delivery truck trailer motorcycle evehicle custom1 custom2" speed="40.00" length="7.95" shape="251.04,3183.85 251.27,3176.05"/>
    </edge>
    <edge id=":8412051448_0" function="internal">
        <lane id=":8412051448_0_0" index="0" allow="private emergency authority army vip passenger hov taxi bus coach delivery truck trailer motorcycle evehicle custom1 custom2" speed="40.00" length="8.00" shape="358.18,1662.16 359.12,1654.21"/>
        <lane id=":8412051448_0_1" index="1" allow="private emergency authority army vip passenger hov taxi bus coach delivery truck trailer motorcycle evehicle custom1 custom2" speed="40.00" length="8.00" shape="361.36,1662.53 362.30,1654.59"/>
        <lane id=":8412051448_0_2" index="2" allow="private emergency authority army vip passenger hov taxi bus coach delivery truck trailer motorcycle evehicle custom1 custom2" speed="40.00" length="8.00" shape="364.54,1662.91 365.48,1654.96"/>
        <lane id=":8412051448_0_3" index="3" allow="private emergency authority army vip passenger hov taxi bus coach delivery truck trailer motorcycle evehicle custom1 custom2" speed="40.00" length="8.00" shape="367.72,1663.28 368.66,1655.34"/>
    </edge>
    <edge id=":J13_0" function="internal">
        <lane id=":J13_0_0" index="0" allow="private emergency authority army vip passenger hov taxi bus coach delivery truck trailer motorcycle evehicle custom1 custom2" speed="40.00" length="0.46" shape="243.32,3102.91 243.35,3102.61"/>
        <lane id=":J13_0_1" index="1" allow="private emergency authority army vip passenger hov taxi bus coach delivery truck trailer motorcycle evehicle custom1 custom2" speed="40.00" length="0.46" shape="246.50,3103.27 246.54,3102.89"/>
        <lane id=":J13_0_2" index="2" allow="private emergency authority army vip passenger hov taxi bus coach delivery truck trailer motorcycle evehicle custom1 custom2" speed="40.00" length="0.46" shape="249.68,3103.63 249.73,3103.17"/>
        <lane id=":J13_0_3" index="3" allow="private emergency authority army vip passenger hov taxi bus coach delivery truck trailer motorcycle evehicle custom1 custom2" speed="40.00" length="0.46" shape="252.86,3103.99 252.92,3103.45"/>
        <lane id=":J13_0_4" index="4" allow="private emergency authority army vip passenger hov taxi bus coach delivery truck trailer motorcycle evehicle custom1 custom2" speed="40.00" length="0.46" shape="256.04,3104.35 256.11,3103.73"/>
    </edge>
    <edge id=":J14_0" function="internal">
        <lane id=":J14_0_0" index="0" allow="private emergency authority army vip passenger hov taxi bus coach delivery truck trailer motorcycle evehicle custom1 custom2" speed="40.00" length="9.24" shape="299.24,2721.10 301.51,2711.17"/>
        <lane id=":J14_0_1" index="1" allow="private emergency authority army vip passenger hov taxi bus coach delivery truck trailer motorcycle evehicle custom1 custom2" speed="40.00" length="9.24" shape="302.40,2721.56 304.56,2712.25"/>
        <lane id=":J14_0_2" index="2" allow="private emergency authority army vip passenger hov taxi bus coach delivery truck trailer motorcycle evehicle custom1 custom2" speed="40.00" length="9.24" shape="305.57,2722.02 307.60,2713.33"/>
        <lane id=":J14_0_3" index="3" allow="private emergency authority army vip passenger hov taxi bus coach delivery truck trailer motorcycle evehicle custom1 custom2" speed="40.00" length="9.24" shape="308.74,2722.48 309.17,2720.06 309.60,2718.43 310.07,2716.81 310.64,2714.42"/>
    </edge>

    <edge id="24067152.262" from="J11" to="385641870" priority="9" type="highway.motorway_link" spreadType="center" shape="609.44,623.49 615.74,617.36 631.42,602.04 644.38,588.53 650.81,579.01 659.28,565.66 667.76,543.52 673.03,523.81 676.35,505.83 678.77,486.14 680.43,473.52 683.05,456.65 685.56,442.33 692.01,378.08">
        <lane id="24067152.262_0" index="0" allow="private emergency authority army vip passenger hov taxi bus coach delivery truck trailer motorcycle evehicle custom1 custom2" speed="40.00" length="266.47" shape="609.44,623.49 615.74,617.36 631.42,602.04 644.38,588.53 650.81,579.01 659.28,565.66 667.76,543.52 673.03,523.81 676.35,505.83 678.77,486.14 680.43,473.52 683.05,456.65 685.56,442.33 691.87,379.48">
            <param key="origId" value="24067152"/>
        </lane>
    </edge>
    <edge id="24067154" from="385641426" to="J10" priority="9" type="highway.motorway_link" spreadType="center" shape="442.66,1374.47 458.63,1337.57 506.81,1225.54 522.59,1185.15 556.99,1098.14 569.88,1064.38 573.77,1048.15 578.27,1026.03 579.76,1003.23 579.26,983.59 577.32,962.19 574.12,947.01 570.22,930.75 566.25,917.72 555.64,892.33 526.72,834.32">
        <lane id="24067154_0" index="0" allow="private emergency authority army vip passenger hov taxi bus coach delivery truck trailer motorcycle evehicle custom1 custom2" speed="40.00" length="575.22" shape="443.23,1373.15 458.63,1337.57 506.81,1225.54 522.59,1185.15 556.99,1098.14 569.88,1064.38 573.77,1048.15 578.27,1026.03 579.76,1003.23 579.26,983.59 577.32,962.19 574.12,947.01 570.22,930.75 566.25,917.72 555.64,892.33 526.72,834.32">
            <param key="origId" value="24067154"/>
        </lane>
    </edge>
    <edge id="24067155" from="385641811" to="J8" priority="9" type="highway.motorway_link" spreadType="center" shape="671.61,718.95 671.94,714.62 672.42,710.11 672.50,697.01 671.36,686.11 667.82,675.98 662.87,666.71 657.74,660.66 651.04,654.68 644.41,650.95 637.95,647.71 630.82,645.92 620.26,645.40 609.14,647.52 600.59,651.13 590.61,656.12 580.15,665.36 568.48,678.58 561.49,691.75 558.83,705.95 559.28,710.20">
        <lane id="24067155_0" index="0" allow="private emergency authority army vip passenger hov taxi bus coach delivery truck trailer motorcycle evehicle custom1 custom2" speed="40.00" length="198.88" shape="671.76,717.01 671.94,714.62 672.42,710.11 672.50,697.01 671.36,686.11 667.82,675.98 662.87,666.71 657.74,660.66 651.04,654.68 644.41,650.95 637.95,647.71 630.82,645.92 620.26,645.40 609.14,647.52 600.59,651.13 590.61,656.12 580.15,665.36 568.48,678.58 561.49,691.75 558.83,705.95 559.28,710.20">
            <param key="origId" value="24067155"/>
        </lane>
    </edge>
    <edge id="31144126.151" from="J7" to="385632601" priority="9" type="highway.motorway_link" spreadType="center" shape="552.97,864.91 556.78,873.11 562.81,881.50 571.24,889.02 578.48,893.43 587.46,896.62 597.74,897.47 607.56,896.35 617.44,894.06 626.04,889.37 632.10,884.27 638.16,876.74 645.06,865.10 649.85,851.07 651.38,846.79 653.25,841.48">
        <lane id="31144126.151_0" index="0" allow="private emergency authority army vip passenger hov taxi bus coach delivery truck trailer motorcycle evehicle custom1 custom2" speed="40.00" length="142.54" shape="552.97,864.91 556.78,873.11 562.81,881.50 571.24,889.02 578.48,893.43 587.46,896.62 597.74,897.47 607.56,896.35 617.44,894.06 626.04,889.37 632.10,884.27 638.16,876.74 645.06,865.10 649.85,851.07 651.38,846.79 652.45,843.74">
            <param key="origId" value="31144126"/>
        </lane>
    </edge>
    <edge id="377623249#0" from="385641811" to="385641870" name="Tri-State Tollway" priority="14" type="highway.motorway" spreadType="center" shape="679.54,720.01 687.57,646.41 700.00,378.31">
        <lane id="377623249#0_0" index="0" allow="private emergency authority army vip passenger hov taxi bus coach delivery truck trailer motorcycle evehicle custom1 custom2" speed="40.00" length="338.48" shape="675.01,717.26 682.78,646.04 695.13,379.63">
            <param key="origId" value="377623249"/>
        </lane>
        <lane id="377623249#0_1" index="1" allow="private emergency authority army vip passenger hov taxi bus coach delivery truck trailer motorcycle evehicle custom1 custom2" speed="40.00" length="338.48" shape="678.20,717.50 685.97,646.29 698.33,379.78">
            <param key="origId" value="377623249"/>
        </lane>
        <lane id="377623249#0_2" index="2" allow="private emergency authority army vip passenger hov taxi bus coach delivery truck trailer motorcycle evehicle custom1 custom2" speed="40.00" length="338.48" shape="681.40,717.75 689.17,646.53 701.53,379.93">
            <param key="origId" value="377623249"/>
        </lane>
        <lane id="377623249#0_3" index="3" allow="private emergency authority army vip passenger hov taxi bus coach delivery truck trailer motorcycle evehicle custom1 custom2" speed="40.00" length="338.48" shape="684.59,717.99 692.36,646.78 704.72,380.08">
            <param key="origId" value="377623249"/>
        </lane>
        <param key="ref" value="I 294"/>
    </edge>
    <edge id="377623249#1-AddedOnRampEdge" from="385641870" to="377623249#1-AddedOnRampNode" name="Tri-State Tollway" priority="14" type="highway.motorway" spreadType="center" shape="698.40,378.27 701.03,290.24 701.26,262.99">
        <lane id="377623249#1-AddedOnRampEdge_0" index="0" allow="private emergency authority army vip passenger hov taxi bus coach delivery truck trailer motorcycle evehicle custom1 custom2" speed="40.00" length="113.89" acceleration="1" shape="692.05,376.63 694.63,290.12 694.86,262.91">
            <param key="origId" value="377623249"/>
        </lane>
        <lane id="377623249#1-AddedOnRampEdge_1" index="1" allow="private emergency authority army vip passenger hov taxi bus coach delivery truck trailer motorcycle evehicle custom1 custom2" speed="40.00" length="113.89" shape="695.24,376.72 697.83,290.18 698.06,262.94">
            <param key="origId" value="377623249"/>
        </lane>
        <lane id="377623249#1-AddedOnRampEdge_2" index="2" allow="private emergency authority army vip passenger hov taxi bus coach delivery truck trailer motorcycle evehicle custom1 custom2" speed="40.00" length="113.89" shape="698.44,376.82 701.03,290.24 701.26,262.97">
            <param key="origId" value="377623249"/>
        </lane>
        <lane id="377623249#1-AddedOnRampEdge_3" index="3" allow="private emergency authority army vip passenger hov taxi bus coach delivery truck trailer motorcycle evehicle custom1 custom2" speed="40.00" length="113.89" shape="701.64,376.91 704.23,290.30 704.46,262.99">
            <param key="origId" value="377623249"/>
        </lane>
        <lane id="377623249#1-AddedOnRampEdge_4" index="4" allow="private emergency authority army vip passenger hov taxi bus coach delivery truck trailer motorcycle evehicle custom1 custom2" speed="40.00" length="113.89" shape="704.84,377.01 707.43,290.36 707.66,263.02">
            <param key="origId" value="377623249"/>
        </lane>
        <param key="ref" value="I 294"/>
    </edge>
    <edge id="38878546.568" from="J12" to="385632616" priority="9" type="highway.motorway_link" spreadType="center" shape="230.77,3586.74 233.16,3564.50 235.91,3527.03 237.90,3488.82 240.62,3411.67 235.04,3315.79 234.62,3305.80 234.75,3288.13">
        <lane id="38878546.568_0" index="0" allow="private emergency authority army vip passenger hov taxi bus coach delivery truck trailer motorcycle evehicle custom1 custom2" speed="40.00" length="287.88" shape="229.38,3584.68 231.57,3564.36 234.31,3526.93 236.30,3488.75 239.02,3411.69 233.44,3315.87 233.02,3305.83 233.08,3297.44">
            <param key="origId" value="38878546"/>
        </lane>
        <lane id="38878546.568_1" index="1" allow="private emergency authority army vip passenger hov taxi bus coach delivery truck trailer motorcycle evehicle custom1 custom2" speed="40.00" length="287.88" shape="232.56,3585.02 234.75,3564.64 237.51,3527.13 239.50,3488.89 242.22,3411.65 236.64,3315.71 236.22,3305.77 236.28,3297.47">
            <param key="origId" value="38878546"/>
        </lane>
    </edge>
    <edge id="61857409" from="385641426" to="385632601" name="Tri-State Tollway" priority="14" type="highway.motorway" spreadType="center" shape="449.95,1377.78 518.99,1227.64 537.17,1184.69 593.26,1062.62 620.21,990.81 634.40,948.25 646.67,904.37 661.13,842.83">
        <lane id="61857409_0" index="0" allow="private emergency authority army vip passenger hov taxi bus coach delivery truck trailer motorcycle evehicle custom1 custom2" speed="40.00" length="571.61" shape="446.21,1374.43 514.60,1225.70 532.78,1182.75 588.83,1060.77 615.68,989.21 629.81,946.84 642.02,903.17 655.68,845.02">
            <param key="origId" value="61857409"/>
        </lane>
        <lane id="61857409_1" index="1" allow="private emergency authority army vip passenger hov taxi bus coach delivery truck trailer motorcycle evehicle custom1 custom2" speed="40.00" length="571.61" shape="449.14,1375.71 517.53,1226.99 535.71,1184.04 591.78,1062.00 618.70,990.28 632.87,947.78 645.12,903.97 658.80,845.76">
            <param key="origId" value="61857409"/>
        </lane>
        <lane id="61857409_2" index="2" allow="private emergency authority army vip passenger hov taxi bus coach delivery truck trailer motorcycle evehicle custom1 custom2" speed="40.00" length="571.61" shape="452.08,1376.98 520.45,1228.29 538.63,1185.34 594.74,1063.24 621.72,991.34 635.93,948.72 648.22,904.77 661.91,846.49">
            <param key="origId" value="61857409"/>
        </lane>
        <lane id="61857409_3" index="3" allow="private emergency authority army vip passenger hov taxi bus coach delivery truck trailer motorcycle evehicle custom1 custom2" speed="40.00" length="571.61" shape="455.02,1378.25 523.38,1229.58 541.56,1186.63 597.69,1064.47 624.74,992.41 638.99,949.66 651.32,905.57 665.03,847.22">
            <param key="origId" value="61857409"/>
        </lane>
        <param key="ref" value="I 294"/>
    </edge>
    <edge id="61857420" from="61857420-AddedOnRampNode" to="J13" name="Tri-State Tollway" priority="14" type="highway.motorway" spreadType="center" shape="244.71,3179.75 246.80,3129.21 247.64,3121.73 248.30,3115.91 249.71,3103.40">
        <lane id="61857420_0" index="0" allow="private emergency authority army vip passenger hov taxi bus coach delivery truck trailer motorcycle evehicle custom1 custom2" speed="40.00" length="72.36" shape="238.48,3175.52 240.41,3128.72 241.28,3121.01 241.94,3115.19 243.32,3102.91">
            <param key="origId" value="61857420 61857455 421879080"/>
        </lane>
        <lane id="61857420_1" index="1" allow="private emergency authority army vip passenger hov taxi bus coach delivery truck trailer motorcycle evehicle custom1 custom2" speed="40.00" length="72.36" shape="241.68,3175.65 243.61,3128.97 244.46,3121.37 245.12,3115.55 246.50,3103.27">
            <param key="origId" value="61857420 61857455 421879080"/>
        </lane>
        <lane id="61857420_2" index="2" allow="private emergency authority army vip passenger hov taxi bus coach delivery truck trailer motorcycle evehicle custom1 custom2" speed="40.00" length="72.36" shape="244.87,3175.78 246.80,3129.21 247.64,3121.73 248.30,3115.91 249.68,3103.63">
            <param key="origId" value="61857420 61857455 421879080"/>
        </lane>
        <lane id="61857420_3" index="3" allow="private emergency authority army vip passenger hov taxi bus coach delivery truck trailer motorcycle evehicle custom1 custom2" speed="40.00" length="72.36" shape="248.07,3175.92 249.99,3129.45 250.82,3122.09 251.48,3116.27 252.86,3103.99">
            <param key="origId" value="61857420 61857455 421879080"/>
        </lane>
        <lane id="61857420_4" index="4" allow="private emergency authority army vip passenger hov taxi bus coach delivery truck trailer motorcycle evehicle custom1 custom2" speed="40.00" length="72.36" shape="251.27,3176.05 253.19,3129.70 254.00,3122.45 254.66,3116.63 256.04,3104.35">
            <param key="origId" value="61857420 61857455 421879080"/>
        </lane>
        <param key="ref" value="I 294"/>
    </edge>
    <edge id="61857420-AddedOnRampEdge" from="385632616" to="61857420-AddedOnRampNode" name="Tri-State Tollway" priority="14" type="highway.motorway" spreadType="center" shape="243.12,3287.49 242.21,3229.44 243.11,3179.72">
        <lane id="61857420-AddedOnRampEdge_0" index="0" allow="private emergency authority army vip passenger hov taxi bus coach delivery truck trailer motorcycle evehicle custom1 custom2" speed="40.00" length="95.81" acceleration="1" shape="235.00,3279.63 234.21,3229.43 235.04,3183.56">
            <param key="origId" value="61857420 61857455 421879080"/>
        </lane>
        <lane id="61857420-AddedOnRampEdge_1" index="1" allow="private emergency authority army vip passenger hov taxi bus coach delivery truck trailer motorcycle evehicle custom1 custom2" speed="40.00" length="95.81" shape="238.20,3279.58 237.41,3229.43 238.24,3183.62">
            <param key="origId" value="61857420 61857455 421879080"/>
        </lane>
        <lane id="61857420-AddedOnRampEdge_2" index="2" allow="private emergency authority army vip passenger hov taxi bus coach delivery truck trailer motorcycle evehicle custom1 custom2" speed="40.00" length="95.81" shape="241.39,3279.53 240.61,3229.44 241.44,3183.68">
            <param key="origId" value="61857420 61857455 421879080"/>
        </lane>
        <lane id="61857420-AddedOnRampEdge_3" index="3" allow="private emergency authority army vip passenger hov taxi bus coach delivery truck trailer motorcycle evehicle custom1 custom2" speed="40.00" length="95.81" shape="244.59,3279.48 243.81,3229.44 244.64,3183.74">
            <param key="origId" value="61857420 61857455 421879080"/>
        </lane>
        <lane id="61857420-AddedOnRampEdge_4" index="4" allow="private emergency authority army vip passenger hov taxi bus coach delivery truck trailer motorcycle evehicle custom1 custom2" speed="40.00" length="95.81" shape="247.79,3279.43 247.01,3229.45 247.84,3183.79">
            <param key="origId" value="61857420 61857455 421879080"/>
        </lane>
        <lane id="61857420-AddedOnRampEdge_5" index="5" allow="private emergency authority army vip passenger hov taxi bus coach delivery truck trailer motorcycle evehicle custom1 custom2" speed="40.00" length="95.81" shape="250.99,3279.38 250.21,3229.45 251.04,3183.85">
            <param key="origId" value="61857420 61857455 421879080"/>
        </lane>
        <param key="ref" value="I 294"/>
    </edge>
    <edge id="61857420.458" from="J14" to="8412051448" name="Tri-State Tollway" priority="14" type="highway.motorway" spreadType="center" shape="301.93,2724.82 305.88,2713.75 308.46,2701.32 310.88,2679.65 321.30,2608.76 326.78,2565.65 331.20,2519.47 333.88,2482.35 336.02,2443.18 338.77,2366.40 349.66,1930.13 350.73,1887.26 352.25,1826.45 357.45,1709.26 363.42,1658.75">
        <lane id="61857420.458_0" index="0" allow="private emergency authority army vip passenger hov taxi bus coach delivery truck trailer motorcycle evehicle custom1 custom2" speed="40.00" length="1052.58" shape="301.51,2711.17 303.71,2700.56 306.12,2679.03 316.54,2608.11 322.01,2565.12 326.42,2519.07 329.09,2482.05 331.22,2442.96 333.97,2366.25 344.86,1930.01 345.93,1887.14 347.45,1826.28 352.66,1708.87 358.18,1662.16">
            <param key="origId" value="61857420 61857455 421879080"/>
        </lane>