<configuration>
    <input>
        <net-file value="I294.net.xml"/>
        <route-files value="I294_trial0.trips.xml"/>
    </input>

    <time>
        <begin value="0" />
        <end value="3600"/>
        <step-length value="0.1"/>
    </time>

</configuration>